<configuration>
    <input>
        <net-file value="smwan1.net.xml" />
        <route-files value="smwan1.rou.xml" />
    </input>
    <time>
        <begin value="0" />
        <end value="3600" />
    </time>
    <output>
        <fcd-output value="shimeiwan.output.xml" />
    </output>
</configuration>