<configuration>
    <input>
        <net-file value="smwan1.net.xml" />
        <route-files value="smwan1.rou.xml" />
    </input>
    <time>
        <begin value="0" />
        <end value="3600" />
    </time>
    <output>
        <tripinfo-output value="output/tripinfo.xml"/>
        <summary-output value="output/summary_rl.xml"/>


    </output>

    <gui_only>
        <start value='t'/>
        <quit-on-end value='true'/>
    </gui_only>
</configuration>